<additional>
    <edgeData id="1" edges="155448017#1" file="edgedata.out.xml"/>
</additional>